*Heading
** Job name: Cylinder Model name: Model-1
** Generated by: Abaqus/CAE 2017
*Preprint, echo=NO, model=NO, history=NO, contact=NO
**
** PARTS
**
*Part, name=Part-1
*Node
      1,   18.6183834,  -10.1664066,           0.
      2,   21.1591549,   1.51333261,           0.
      3,   19.8757057,   7.41325474,           0.
      4,   16.9820442,   12.7125988,           0.
      5,   7.41325474,   19.8757057,           0.
      6,   1.51333261,   21.1591549,           0.
      7,  -10.1664066,   18.6183834,           0.
      8,         -15.,          15.,           0.
      9,  -18.6183834,   10.1664066,           0.
     10,  -21.1591549,  -1.51333261,           0.
     11,  -19.8757057,  -7.41325474,           0.
     12,  -12.7125988,  -16.9820442,           0.
     13,  -7.41325474,  -19.8757057,           0.
     14,  -1.51333261,  -21.1591549,           0.
     15,   10.1664066,  -18.6183834,           0.
     16,          15.,         -15.,           0.
     17,   20.7284145,  -4.50919056,           0.
     18,   12.7125988,   16.9820442,           0.
     19,  -4.50919056,   20.7284145,           0.
     20,  -20.7284145,   4.50919056,           0.
** ... 2360 like lines cut
*Element, type=C3D8
   1,   85,   92,   94,   93,   15,   22,   24,   23
   2,   84,  112,   94,   92,   14,   42,   24,   22
   3,  124,   97,  111,  134,   54,   27,   41,   64
   4,   86,   85,   93,   96,   16,   15,   23,   26
   5,   98,   99,  135,  115,   28,   29,   65,   45
   6,  138,  120,  109,  103,   68,   50,   39,   33
   7,  137,  116,  101,  102,   67,   46,   31,   32
   8,  120,  114,  122,  137,   50,   44,   52,   67
   9,  122,  125,  116,  137,   52,   55,   46,   67
  10,  140,  126,  123,  139,   70,   56,   53,   69
  11,  114,  108,  127,  104,   44,   38,   57,   34
  12,  105,  104,   73,   72,   35,   34,    3,    2
  13,  130,  118,  139,  117,   60,   48,   69,   47
  14,   71,   86,   96,  107,    1,   16,   26,   37
  15,  136,  113,  110,  100,   66,   43,   40,   30
  16,   82,   97,   95,   83,   12,   27,   25,   13
  17,   83,   95,  112,   84,   13,   25,   42,   14
  18,   97,   82,   91,  111,   27,   12,   21,   41
  19,  111,   91,   81,   98,   41,   21,   11,   28
  20,  106,  105,   72,   87,   36,   35,    2,   17
** ... 1894 like lines cut
*Nset, nset=Top_Surface, generate
  1,  70,   1
** Section: Section-1
*End Part
**  
**
** ASSEMBLY
**
*Assembly, name=Assembly
**  
*Instance, name=Part-1-1, part=Part-1
*End Instance
**  
*End Assembly
** 
** MATERIALS
** 
*Material, name=Material-1
*Elastic
100000., 0.35
