*Heading
** Job name: Job-1 Model name: Model-1
** Generated by: Abaqus/CAE 2017
*Preprint, echo=NO, model=NO, history=NO, contact=NO
**
** PARTS
**
*Part, name=Part-1
*Node
      1,          10.,           0.,          48.
      2,          10.,           0.,         100.
      3,   7.07106781,  -7.07106781,         100.
      4,   7.07106781,  -7.07106781,          48.
      5,   6.66666651,           0.,          48.
      6,   6.66666651,           0.,         100.
      7,   5.45126009,  -5.49369764,         100.
      8,   5.41644382,  -5.41644382,          48.
      9,           0.,         -10.,         100.
     10,           0.,         -10.,          48.
     11,           0.,  -6.66666651,         100.
     12,           0.,  -6.66666651,          48.
     13,           0.,         -10.,           0.
     14,   7.07106781,  -7.07106781,           0.
     15,           0.,  -6.66666651,           0.
     16,   5.49369764,  -5.45126009,           0.
     17,          10.,           0.,           0.
     18,   6.66666651,           0.,           0.
     19,           0.,           0.,         100.
     20,           0.,           0.,          48.
** ... 344 like lines cut
*Element, type=C3D8R
  1,   5,  48, 213,  73,   1,  22, 201,  47
  2,  48,  49, 214, 213,  22,  23, 202, 201
  3,  49,  50, 215, 214,  23,  24, 203, 202
  4,  50,  51, 216, 215,  24,  25, 204, 203
  5,  51,  52, 217, 216,  25,  26, 205, 204
  6,  52,  53, 218, 217,  26,  27, 206, 205
  7,  53,  54, 219, 218,  27,  28, 207, 206
  8,  54,  55, 220, 219,  28,  29, 208, 207
  9,  55,  56, 221, 220,  29,  30, 209, 208
 10,  56,  57, 222, 221,  30,  31, 210, 209
 11,  57,  58, 223, 222,  31,  32, 211, 210
 12,  58,  59, 224, 223,  32,  33, 212, 211
 13,  59,   6,  60, 224,  33,   2,  34, 212
 14,  73, 213,  72,   8,  47, 201,  46,   4
 15, 213, 214,  71,  72, 201, 202,  45,  46
 16, 214, 215,  70,  71, 202, 203,  44,  45
 17, 215, 216,  69,  70, 203, 204,  43,  44
 18, 216, 217,  68,  69, 204, 205,  42,  43
 19, 217, 218,  67,  68, 205, 206,  41,  42
 20, 218, 219,  66,  67, 206, 207,  40,  41
** ... 180 like lines cut
*Nset, nset=Set-1, generate
   1,  364,    1
*Elset, elset=Set-1, generate
   1,  200,    1
** Section: Section-1
*Solid Section, elset=Set-1, material=MATERIAL_1
,
*End Part
**  
**
** ASSEMBLY
**
*Assembly, name=Assembly
**  
*Instance, name=Part-1-1, part=Part-1
*End Instance
**  
*Nset, nset=NSET1, instance=Part-1-1
  20, 176, 177, 178, 179, 180, 181, 182, 183, 184, 185, 186, 187, 189, 190, 191
 192, 193, 194, 195, 196, 197, 198, 199
*Nset, nset=NSET2, instance=Part-1-1
  10,  12,  75,  76,  77,  78,  79,  80,  81,  82,  83,  84,  85,  86,  89,  90
  91,  92,  93,  94,  95,  96,  97,  98,  99, 100, 102, 103, 104, 105, 106, 107
 108, 109, 110, 111, 112, 125, 126, 127, 128, 129, 130, 131, 132, 133, 134, 135
 175, 295, 296, 297, 298, 299, 300, 301, 302, 303, 304, 305, 306, 330, 331, 332
 333, 334, 335, 336, 337, 338, 339, 340
*Nset, nset=NSET3, instance=Part-1-1
   1,   5,  22,  23,  24,  25,  26,  27,  28,  29,  30,  31,  32,  33,  48,  49
  50,  51,  52,  53,  54,  55,  56,  57,  58,  59, 149, 150, 151, 152, 153, 154
 155, 156, 157, 158, 159, 161, 162, 163, 164, 165, 166, 167, 168, 169, 170, 171
 174, 307, 308, 309, 310, 311, 312, 313, 314, 315, 316, 317, 318, 319, 320, 321
 322, 323, 324, 325, 326, 327, 328, 329
*Nset, nset=NSET4, instance=Part-1-1
 21,
*Nset, nset=NSET5, instance=Part-1-1
  13,  15, 200
*Nset, nset=NSET6, instance=Part-1-1
*Nset, nset=NSET7, instance=Part-1-1
  14,  16, 113, 136, 148, 160, 341
*Nset, nset=NSET8, instance=Part-1-1
 19,
*Nset, nset=NSET9, instance=Part-1-1
   9,  11, 173
*Nset, nset=NSET10, instance=Part-1-1
   2,   6, 172
*Nset, nset=NSET11, instance=Part-1-1
   3,   7,  34,  60,  74,  88, 293
*End Assembly
** 
** MATERIALS
** 
*Material, name=MATERIAL_1
*Density
1000.,
*Elastic
100., 0.45
** ----------------------------------------------------------------
** 
** STEP: Step-1
** 
*Step, name=Step-1, nlgeom=NO
*Static
1., 1., 1e-05, 1.
** 
** BOUNDARY CONDITIONS
** 
** Name: BC-1 Type: Displacement/Rotation
*Boundary
NSET1, 1, 1
NSET1, 2, 2
NSET1, 4, 4
NSET1, 5, 5
NSET1, 6, 6
** Name: BC-2 Type: Displacement/Rotation
*Boundary
NSET2, 1, 1
NSET2, 4, 4
NSET2, 5, 5
NSET2, 6, 6
** Name: BC-3 Type: Displacement/Rotation
*Boundary
NSET3, 2, 2
NSET3, 4, 4
NSET3, 5, 5
NSET3, 6, 6
** Name: BC-4 Type: Displacement/Rotation
*Boundary
NSET4, 1, 1
NSET4, 2, 2
NSET4, 3, 3
NSET4, 4, 4
NSET4, 5, 5
NSET4, 6, 6
** Name: BC-5 Type: Displacement/Rotation
*Boundary
NSET5, 1, 1
NSET5, 3, 3
NSET5, 4, 4
NSET5, 5, 5
NSET5, 6, 6
** Name: BC-6 Type: Displacement/Rotation
*Boundary
NSET6, 2, 2
NSET6, 3, 3
NSET6, 4, 4
NSET6, 5, 5
NSET6, 6, 6
** Name: BC-7 Type: Displacement/Rotation
*Boundary
NSET7, 3, 3
NSET7, 4, 4
NSET7, 5, 5
NSET7, 6, 6
** Name: BC-8 Type: Displacement/Rotation
*Boundary
NSET8, 1, 1
NSET8, 2, 2
NSET8, 3, 3, 5.
NSET8, 4, 4
NSET8, 5, 5
NSET8, 6, 6
** Name: BC-9 Type: Displacement/Rotation
*Boundary
NSET9, 1, 1
NSET9, 3, 3, 5.
NSET9, 4, 4
NSET9, 5, 5
NSET9, 6, 6
** Name: BC-10 Type: Displacement/Rotation
*Boundary
NSET10, 2, 2
NSET10, 3, 3, 5.
NSET10, 4, 4
NSET10, 5, 5
NSET10, 6, 6
** Name: BC-11 Type: Displacement/Rotation
*Boundary
NSET11, 3, 3, 5.
NSET11, 4, 4
NSET11, 5, 5
NSET11, 6, 6
** 
** OUTPUT REQUESTS
** 
*Restart, write, frequency=0
** 
** FIELD OUTPUT: F-Output-1
** 
*Output, field, variable=PRESELECT
** 
** HISTORY OUTPUT: H-Output-1
** 
*Output, history, variable=PRESELECT
*End Step
